/*--------------------------------*- C++ -*----------------------------------*\
| =========                 |                                                 |
| \\      /  F ield         | OpenFOAM: The Open Source CFD Toolbox           |
|  \\    /   O peration     | Version:  v2506                                 |
|   \\  /    A nd           | Website:  www.openfoam.com                      |
|    \\/     M anipulation  |                                                 |
\*---------------------------------------------------------------------------*/
FoamFile
{
    version     2.0;
    format      ascii;
    class       volScalarField;
    object      epsilon;
}
// * * * * * * * * * * * * * * * * * * * * * * * * * * * * * * * * * * * * * //

dimensions      [ 0 2 -3 0 0 0 0 ];

internalField   uniform 0.01;

boundaryField
{
    inLetAir
    {
        type            inletOutlet;
        value           uniform 0.01;
        inletValue      uniform 0.01;
    }
    outLetAir
    {
        type            inletOutlet;
        value           uniform 0.01;
        inletValue      uniform 0.01;
    }
    yFront
    {
        type            inletOutlet;
        value           uniform 0.01;
        inletValue      uniform 0.01;
    }
    yBack
    {
        type            inletOutlet;
        value           uniform 0.01;
        inletValue      uniform 0.01;
    }
    groundWall
    {
        type            epsilonWallFunction;
        value           uniform 0.01;
    }
    topWall
    {
        type            inletOutlet;
        value           uniform 0.01;
        inletValue      uniform 0.01;
    }
    airRegion_to_panel
    {
        type            epsilonWallFunction;
        value           uniform 0.01;
    }
}


// ************************************************************************* //
