/*--------------------------------*- C++ -*----------------------------------*\
| =========                 |                                                 |
| \\      /  F ield         | OpenFOAM: The Open Source CFD Toolbox           |
|  \\    /   O peration     | Version:  v2506                                 |
|   \\  /    A nd           | Website:  www.openfoam.com                      |
|    \\/     M anipulation  |                                                 |
\*---------------------------------------------------------------------------*/
FoamFile
{
    version     2.0;
    format      ascii;
    class       volScalarField;
    object      T;
}
// * * * * * * * * * * * * * * * * * * * * * * * * * * * * * * * * * * * * * //

dimensions      [ 0 0 0 1 0 0 0 ];

internalField   uniform 300;

boundaryField
{
    fmaxY
    {
        type            zeroGradient;
        value           uniform 300;
    }

    fminX
    {
        type            zeroGradient;
        value           uniform 300;
    }

    fmaxX
    {
        type            zeroGradient;
        value           uniform 300;
    }

    fminY
    {
        type            zeroGradient;
        value           uniform 300;
    }

    fminZ
    {
        type            externalWallHeatFluxTemperature;
        mode            coefficient;
        Ta              uniform 313;
        h               uniform 1000000;
        thicknessLayers ( 1 2 );
        kappaLayers     ( 100 200 );
        kappaMethod     solidThermo;
        kappa           none;
        value           uniform 300;
    }

    floor_to_air
    {
        type            compressible::turbulentTemperatureRadCoupledMixed;
        value           uniform 300;
        Tnbr            T;
        kappaMethod     solidThermo;
        qrNbr           qr;
        qr              none;
        kappa           none;
    }
}


// ************************************************************************* //
