/*--------------------------------*- C++ -*----------------------------------*\
| =========                 |                                                 |
| \\      /  F ield         | OpenFOAM: The Open Source CFD Toolbox           |
|  \\    /   O peration     | Version:  v2506                                 |
|   \\  /    A nd           | Website:  www.openfoam.com                      |
|    \\/     M anipulation  |                                                 |
\*---------------------------------------------------------------------------*/
FoamFile
{
    version     2.0;
    format      ascii;
    class       volScalarField;
    object      p;
}
// * * * * * * * * * * * * * * * * * * * * * * * * * * * * * * * * * * * * * //

dimensions      [1 -1 -2 0 0 0 0];

internalField   uniform 100000;

boundaryField
{
    fmaxY
    {
        type            calculated;
        value           uniform 0;
    }

    fminX
    {
        type            calculated;
        value           uniform 0;
    }

    fmaxX
    {
        type            calculated;
        value           uniform 0;
    }

    fminY
    {
        type            calculated;
        value           uniform 0;
    }

    fminZ
    {
        type            calculated;
        value           uniform 0;
    }

    floor_to_air
    {
        type            calculated;
        value           uniform 0;
    }

    floor_to_solid
    {
        type            calculated;
        value           uniform 0;
    }
}


// ************************************************************************* //
